# b3lyp/6-31g(d,p) nosymm pop=full IOp(3/32=2)

CH3 for CDA

0 2
 C                  0.05154300    0.70379000    0.00000000
 H                  0.59336100    1.06456600    0.88042000
 H                  0.59336100    1.06456600   -0.88042000
 H                 -0.94189500    1.18429800    0.00000000

